butane
  -OEChem-11081716433D

 14 13  0     0  0  0  0  0  0999 V2000
    0.4020   -0.7274    0.7094 C   0  0  0  0  0  0  0  0  0  0  0  0
    2.5434    1.6212    2.9184 C   0  0  0  0  0  0  0  0  0  0  0  0
    1.6360   -0.1809    1.4096 C   0  0  0  0  0  0  0  0  0  0  0  0
    1.3154    1.0866    2.1991 C   0  0  0  0  0  0  0  0  0  0  0  0
   -0.0135    0.0088    0.0139 H   0  0  0  0  0  0  0  0  0  0  0  0
    0.6561   -1.6272    0.1405 H   0  0  0  0  0  0  0  0  0  0  0  0
   -0.3744   -0.9922    1.4342 H   0  0  0  0  0  0  0  0  0  0  0  0
    2.9450    0.8780    3.6147 H   0  0  0  0  0  0  0  0  0  0  0  0
    2.2869    2.5184    3.4903 H   0  0  0  0  0  0  0  0  0  0  0  0
    3.3312    1.8859    2.2059 H   0  0  0  0  0  0  0  0  0  0  0  0
    2.0363   -0.9484    2.0824 H   0  0  0  0  0  0  0  0  0  0  0  0
    2.4100    0.0313    0.6629 H   0  0  0  0  0  0  0  0  0  0  0  0
    0.9298    1.8588    1.5230 H   0  0  0  0  0  0  0  0  0  0  0  0
    0.5300    0.8786    2.9349 H   0  0  0  0  0  0  0  0  0  0  0  0
  1  3  1  0  0  0  0
  2  4  1  0  0  0  0
  3  4  1  0  0  0  0
  1  5  1  0  0  0  0
  1  6  1  0  0  0  0
  1  7  1  0  0  0  0
  2  8  1  0  0  0  0
  2  9  1  0  0  0  0
  2 10  1  0  0  0  0
  3 11  1  0  0  0  0
  3 12  1  0  0  0  0
  4 13  1  0  0  0  0
  4 14  1  0  0  0  0
M  END
> <MM Szybki Single Point Energy>
-5.042744852431

> <MM Szybki SD Energy>
-5.069941620715

$$$$
butane
  -OEChem-11081716433D

 14 13  0     0  0  0  0  0  0999 V2000
    0.4054   -0.7861    0.7011 C   0  0  0  0  0  0  0  0  0  0  0  0
    0.8210    2.2481    1.3076 C   0  0  0  0  0  0  0  0  0  0  0  0
    1.6177   -0.1733    1.3852 C   0  0  0  0  0  0  0  0  0  0  0  0
    1.2948    1.0939    2.1776 C   0  0  0  0  0  0  0  0  0  0  0  0
   -0.0013   -0.1216   -0.0668 H   0  0  0  0  0  0  0  0  0  0  0  0
    0.6850   -1.7248    0.2120 H   0  0  0  0  0  0  0  0  0  0  0  0
   -0.3857   -1.0041    1.4254 H   0  0  0  0  0  0  0  0  0  0  0  0
    1.5479    2.4712    0.5204 H   0  0  0  0  0  0  0  0  0  0  0  0
    0.6931    3.1492    1.9160 H   0  0  0  0  0  0  0  0  0  0  0  0
   -0.1419    2.0272    0.8378 H   0  0  0  0  0  0  0  0  0  0  0  0
    2.0425   -0.9149    2.0723 H   0  0  0  0  0  0  0  0  0  0  0  0
    2.3882    0.0423    0.6359 H   0  0  0  0  0  0  0  0  0  0  0  0
    0.5360    0.8755    2.9379 H   0  0  0  0  0  0  0  0  0  0  0  0
    2.1986    1.4090    2.7129 H   0  0  0  0  0  0  0  0  0  0  0  0
  1  3  1  0  0  0  0
  2  4  1  0  0  0  0
  3  4  1  0  0  0  0
  1  5  1  0  0  0  0
  1  6  1  0  0  0  0
  1  7  1  0  0  0  0
  2  8  1  0  0  0  0
  2  9  1  0  0  0  0
  2 10  1  0  0  0  0
  3 11  1  0  0  0  0
  3 12  1  0  0  0  0
  4 13  1  0  0  0  0
  4 14  1  0  0  0  0
M  END
> <MM Szybki Single Point Energy>
-3.134229093462

> <MM Szybki SD Energy>
-4.289929710088

$$$$
butane
  -OEChem-11081716433D

 14 13  0     0  0  0  0  0  0999 V2000
    0.4216   -0.7655    0.6578 C   0  0  0  0  0  0  0  0  0  0  0  0
    0.2496    0.8834    3.2933 C   0  0  0  0  0  0  0  0  0  0  0  0
    1.6069   -0.1960    1.4221 C   0  0  0  0  0  0  0  0  0  0  0  0
    1.2786    1.0839    2.1914 C   0  0  0  0  0  0  0  0  0  0  0  0
   -0.0110   -0.0164   -0.0127 H   0  0  0  0  0  0  0  0  0  0  0  0
    0.7407   -1.6194    0.0516 H   0  0  0  0  0  0  0  0  0  0  0  0
   -0.3612   -1.1166    1.3367 H   0  0  0  0  0  0  0  0  0  0  0  0
   -0.7260    0.6038    2.8849 H   0  0  0  0  0  0  0  0  0  0  0  0
    0.1178    1.8123    3.8574 H   0  0  0  0  0  0  0  0  0  0  0  0
    0.5691    0.1045    3.9926 H   0  0  0  0  0  0  0  0  0  0  0  0
    1.9947   -0.9558    2.1105 H   0  0  0  0  0  0  0  0  0  0  0  0
    2.4097    0.0240    0.7081 H   0  0  0  0  0  0  0  0  0  0  0  0
    2.2027    1.4659    2.6417 H   0  0  0  0  0  0  0  0  0  0  0  0
    0.9226    1.8541    1.4975 H   0  0  0  0  0  0  0  0  0  0  0  0
  1  3  1  0  0  0  0
  2  4  1  0  0  0  0
  3  4  1  0  0  0  0
  1  5  1  0  0  0  0
  1  6  1  0  0  0  0
  1  7  1  0  0  0  0
  2  8  1  0  0  0  0
  2  9  1  0  0  0  0
  2 10  1  0  0  0  0
  3 11  1  0  0  0  0
  3 12  1  0  0  0  0
  4 13  1  0  0  0  0
  4 14  1  0  0  0  0
M  END
> <MM Szybki Single Point Energy>
-2.775653954593

> <MM Szybki SD Energy>
-4.286880060522

$$$$
