butane
  -OEChem-11081716493D

 14 13  0     0  0  0  0  0  0999 V2000
   -1.0854   -1.1869   -1.1175 C   0  0  0  0  0  0  0  0  0  0  0  0
    1.0855    1.1872    1.1170 C   0  0  0  0  0  0  0  0  0  0  0  0
    0.1447   -0.6336   -0.4017 C   0  0  0  0  0  0  0  0  0  0  0  0
   -0.1449    0.6332    0.4023 C   0  0  0  0  0  0  0  0  0  0  0  0
   -1.4973   -0.4444   -1.8243 H   0  0  0  0  0  0  0  0  0  0  0  0
   -0.8447   -2.1003   -1.6894 H   0  0  0  0  0  0  0  0  0  0  0  0
   -1.8812   -1.4406   -0.3945 H   0  0  0  0  0  0  0  0  0  0  0  0
    1.4981    0.4451    1.8238 H   0  0  0  0  0  0  0  0  0  0  0  0
    0.8450    2.1008    1.6887 H   0  0  0  0  0  0  0  0  0  0  0  0
    1.8808    1.4409    0.3934 H   0  0  0  0  0  0  0  0  0  0  0  0
    0.5577   -1.4047    0.2767 H   0  0  0  0  0  0  0  0  0  0  0  0
    0.9388   -0.4172   -1.1419 H   0  0  0  0  0  0  0  0  0  0  0  0
   -0.5587    1.4040   -0.2759 H   0  0  0  0  0  0  0  0  0  0  0  0
   -0.9383    0.4166    1.1431 H   0  0  0  0  0  0  0  0  0  0  0  0
  1  3  1  0  0  0  0
  2  4  1  0  0  0  0
  3  4  1  0  0  0  0
  1  5  1  0  0  0  0
  1  6  1  0  0  0  0
  1  7  1  0  0  0  0
  2  8  1  0  0  0  0
  2  9  1  0  0  0  0
  2 10  1  0  0  0  0
  3 11  1  0  0  0  0
  3 12  1  0  0  0  0
  4 13  1  0  0  0  0
  4 14  1  0  0  0  0
M  END
> <MM Szybki Single Point Energy>
-5.042744852431

> <MM Szybki SD Energy>
-5.069941620715

> <QM Psi4 Final Opt. Energy (Har) mp2/def2-sv(p)>
-157.6760733510284

> <QM Psi4 Opt. Runtime (sec) mp2/def2-sv(p)>
timer.dat file not found

> <Original omega conformer number>
1

> <QM Psi4 Opt. Steps mp2/def2-sv(p)>
5

> <QM Psi4 Initial Opt. Energy (Har) mp2/def2-sv(p)>
-157.674785134347

$$$$
butane
  -OEChem-11081716493D

 14 13  0     0  0  0  0  0  0999 V2000
   -0.6230   -1.3910   -0.6822 C   0  0  0  0  0  0  0  0  0  0  0  0
   -0.2051    1.6554   -0.0768 C   0  0  0  0  0  0  0  0  0  0  0  0
    0.5926   -0.7835    0.0168 C   0  0  0  0  0  0  0  0  0  0  0  0
    0.2913    0.5013    0.7932 C   0  0  0  0  0  0  0  0  0  0  0  0
   -1.0164   -0.7282   -1.4719 H   0  0  0  0  0  0  0  0  0  0  0  0
   -0.3667   -2.3549   -1.1562 H   0  0  0  0  0  0  0  0  0  0  0  0
   -1.4382   -1.5772    0.0410 H   0  0  0  0  0  0  0  0  0  0  0  0
    0.5144    1.8723   -0.8876 H   0  0  0  0  0  0  0  0  0  0  0  0
   -0.3281    2.5767    0.5196 H   0  0  0  0  0  0  0  0  0  0  0  0
   -1.1801    1.4294   -0.5415 H   0  0  0  0  0  0  0  0  0  0  0  0
    1.0173   -1.5289    0.7153 H   0  0  0  0  0  0  0  0  0  0  0  0
    1.3834   -0.5764   -0.7302 H   0  0  0  0  0  0  0  0  0  0  0  0
   -0.4583    0.2810    1.5780 H   0  0  0  0  0  0  0  0  0  0  0  0
    1.2084    0.8182    1.3245 H   0  0  0  0  0  0  0  0  0  0  0  0
  1  3  1  0  0  0  0
  2  4  1  0  0  0  0
  3  4  1  0  0  0  0
  1  5  1  0  0  0  0
  1  6  1  0  0  0  0
  1  7  1  0  0  0  0
  2  8  1  0  0  0  0
  2  9  1  0  0  0  0
  2 10  1  0  0  0  0
  3 11  1  0  0  0  0
  3 12  1  0  0  0  0
  4 13  1  0  0  0  0
  4 14  1  0  0  0  0
M  END
> <MM Szybki Single Point Energy>
-3.134229093462

> <MM Szybki SD Energy>
-4.289929710088

> <QM Psi4 Final Opt. Energy (Har) mp2/def2-sv(p)>
-157.6751434055819

> <QM Psi4 Opt. Runtime (sec) mp2/def2-sv(p)>
timer.dat file not found

> <Original omega conformer number>
2

> <QM Psi4 Opt. Steps mp2/def2-sv(p)>
5

> <QM Psi4 Initial Opt. Energy (Har) mp2/def2-sv(p)>
-157.674195038141

$$$$
butane
  -OEChem-11081716493D

 14 13  0     0  0  0  0  0  0999 V2000
   -0.4459   -1.0273   -1.2387 C   0  0  0  0  0  0  0  0  0  0  0  0
   -0.6317    0.6487    1.4031 C   0  0  0  0  0  0  0  0  0  0  0  0
    0.7399   -0.4361   -0.4773 C   0  0  0  0  0  0  0  0  0  0  0  0
    0.4104    0.8402    0.3018 C   0  0  0  0  0  0  0  0  0  0  0  0
   -0.8850   -0.2781   -1.9228 H   0  0  0  0  0  0  0  0  0  0  0  0
   -0.1340   -1.8956   -1.8455 H   0  0  0  0  0  0  0  0  0  0  0  0
   -1.2425   -1.3697   -0.5561 H   0  0  0  0  0  0  0  0  0  0  0  0
   -1.6160    0.3657    0.9922 H   0  0  0  0  0  0  0  0  0  0  0  0
   -0.7699    1.5779    1.9836 H   0  0  0  0  0  0  0  0  0  0  0  0
   -0.3174   -0.1444    2.1061 H   0  0  0  0  0  0  0  0  0  0  0  0
    1.1434   -1.1925    0.2236 H   0  0  0  0  0  0  0  0  0  0  0  0
    1.5541   -0.2148   -1.1927 H   0  0  0  0  0  0  0  0  0  0  0  0
    1.3422    1.2324    0.7508 H   0  0  0  0  0  0  0  0  0  0  0  0
    0.0606    1.6155   -0.4073 H   0  0  0  0  0  0  0  0  0  0  0  0
  1  3  1  0  0  0  0
  2  4  1  0  0  0  0
  3  4  1  0  0  0  0
  1  5  1  0  0  0  0
  1  6  1  0  0  0  0
  1  7  1  0  0  0  0
  2  8  1  0  0  0  0
  2  9  1  0  0  0  0
  2 10  1  0  0  0  0
  3 11  1  0  0  0  0
  3 12  1  0  0  0  0
  4 13  1  0  0  0  0
  4 14  1  0  0  0  0
M  END
> <MM Szybki Single Point Energy>
-2.775653954593

> <MM Szybki SD Energy>
-4.286880060522

> <QM Psi4 Final Opt. Energy (Har) mp2/def2-sv(p)>
-157.6751434145012

> <QM Psi4 Opt. Runtime (sec) mp2/def2-sv(p)>
timer.dat file not found

> <Original omega conformer number>
3

> <QM Psi4 Opt. Steps mp2/def2-sv(p)>
5

> <QM Psi4 Initial Opt. Energy (Har) mp2/def2-sv(p)>
-157.674208775528

$$$$
