AlkEthOH_c1178
  -OEChem-05251717563D

 28 27  0     0  0  0  0  0  0999 V2000
    0.2712    1.3799   -3.1150 C   0  0  0  0  0  0  0  0  0  0  0  0
    0.2407   -0.8606    2.5267 C   0  0  0  0  0  0  0  0  0  0  0  0
    0.9907   -1.9613    0.4061 C   0  0  0  0  0  0  0  0  0  0  0  0
   -1.7460   -0.8853   -0.0086 C   0  0  0  0  0  0  0  0  0  0  0  0
   -1.0387    1.3240    0.9630 C   0  0  0  0  0  0  0  0  0  0  0  0
   -0.6824    0.8299   -2.0716 C   0  0  0  0  0  0  0  0  0  0  0  0
    0.5786   -0.6382    1.0584 C   0  0  0  0  0  0  0  0  0  0  0  0
   -0.5703    0.0516    0.2584 C   0  0  0  0  0  0  0  0  0  0  0  0
    1.6937    0.2468    1.0574 O   0  0  0  0  0  0  0  0  0  0  0  0
    0.0961    0.4094   -0.9685 O   0  0  0  0  0  0  0  0  0  0  0  0
    0.8227    2.2442   -2.7088 H   0  0  0  0  0  0  0  0  0  0  0  0
    1.0008    0.6059   -3.4066 H   0  0  0  0  0  0  0  0  0  0  0  0
   -0.2812    1.7019   -4.0150 H   0  0  0  0  0  0  0  0  0  0  0  0
    0.0870    0.1003    3.0426 H   0  0  0  0  0  0  0  0  0  0  0  0
   -0.6530   -1.4949    2.6539 H   0  0  0  0  0  0  0  0  0  0  0  0
    1.0968   -1.3645    3.0080 H   0  0  0  0  0  0  0  0  0  0  0  0
    1.1740   -1.8165   -0.6718 H   0  0  0  0  0  0  0  0  0  0  0  0
    1.9287   -2.2963    0.8809 H   0  0  0  0  0  0  0  0  0  0  0  0
    0.2299   -2.7503    0.5383 H   0  0  0  0  0  0  0  0  0  0  0  0
   -1.4575   -1.7057   -0.6858 H   0  0  0  0  0  0  0  0  0  0  0  0
   -2.1133   -1.3210    0.9360 H   0  0  0  0  0  0  0  0  0  0  0  0
   -2.5869   -0.3360   -0.4675 H   0  0  0  0  0  0  0  0  0  0  0  0
   -0.1640    1.9274    1.2538 H   0  0  0  0  0  0  0  0  0  0  0  0
   -1.6821    1.9216    0.2943 H   0  0  0  0  0  0  0  0  0  0  0  0
   -1.6302    1.0861    1.8633 H   0  0  0  0  0  0  0  0  0  0  0  0
   -1.2574   -0.0191   -2.4911 H   0  0  0  0  0  0  0  0  0  0  0  0
   -1.4102    1.6101   -1.7739 H   0  0  0  0  0  0  0  0  0  0  0  0
    1.7839    0.5414    0.1296 H   0  0  0  0  0  0  0  0  0  0  0  0
  1  6  1  0  0  0  0
  2  7  1  0  0  0  0
  3  7  1  0  0  0  0
  4  8  1  0  0  0  0
  5  8  1  0  0  0  0
  6 10  1  0  0  0  0
  7  8  1  0  0  0  0
  7  9  1  0  0  0  0
  8 10  1  0  0  0  0
  1 11  1  0  0  0  0
  1 12  1  0  0  0  0
  1 13  1  0  0  0  0
  2 14  1  0  0  0  0
  2 15  1  0  0  0  0
  2 16  1  0  0  0  0
  3 17  1  0  0  0  0
  3 18  1  0  0  0  0
  3 19  1  0  0  0  0
  4 20  1  0  0  0  0
  4 21  1  0  0  0  0
  4 22  1  0  0  0  0
  5 23  1  0  0  0  0
  5 24  1  0  0  0  0
  5 25  1  0  0  0  0
  6 26  1  0  0  0  0
  6 27  1  0  0  0  0
  9 28  1  0  0  0  0
M  END
> <MM Szybki Single Point Energy>
37.673314504518

> <MM Szybki SD Energy>
37.004484348111

> <Original omega conformer number>
1

$$$$
AlkEthOH_c1178
  -OEChem-05251717563D

 28 27  0     0  0  0  0  0  0999 V2000
    0.4303    0.8974   -3.2940 C   0  0  0  0  0  0  0  0  0  0  0  0
   -0.1559   -1.1559    2.4014 C   0  0  0  0  0  0  0  0  0  0  0  0
    1.3451   -1.6207    0.4525 C   0  0  0  0  0  0  0  0  0  0  0  0
   -1.7317   -0.9101   -0.0687 C   0  0  0  0  0  0  0  0  0  0  0  0
   -1.0786    1.3847    0.7153 C   0  0  0  0  0  0  0  0  0  0  0  0
   -0.3908    1.0867   -2.0322 C   0  0  0  0  0  0  0  0  0  0  0  0
    0.4870   -0.5613    1.1448 C   0  0  0  0  0  0  0  0  0  0  0  0
   -0.5632    0.0500    0.1738 C   0  0  0  0  0  0  0  0  0  0  0  0
    1.3249    0.5295    1.5304 O   0  0  0  0  0  0  0  0  0  0  0  0
    0.1533    0.2295   -1.0521 O   0  0  0  0  0  0  0  0  0  0  0  0
    1.4888    1.1302   -3.0904 H   0  0  0  0  0  0  0  0  0  0  0  0
    0.3642   -0.1487   -3.6366 H   0  0  0  0  0  0  0  0  0  0  0  0
    0.0683    1.5614   -4.0987 H   0  0  0  0  0  0  0  0  0  0  0  0
   -0.8057   -0.4233    2.9085 H   0  0  0  0  0  0  0  0  0  0  0  0
   -0.7381   -2.0664    2.1817 H   0  0  0  0  0  0  0  0  0  0  0  0
    0.6478   -1.4347    3.1078 H   0  0  0  0  0  0  0  0  0  0  0  0
    1.9015   -1.1583   -0.3749 H   0  0  0  0  0  0  0  0  0  0  0  0
    2.0606   -2.0426    1.1850 H   0  0  0  0  0  0  0  0  0  0  0  0
    0.7412   -2.4548    0.0573 H   0  0  0  0  0  0  0  0  0  0  0  0
   -1.3710   -1.9011   -0.3916 H   0  0  0  0  0  0  0  0  0  0  0  0
   -2.3540   -1.0286    0.8341 H   0  0  0  0  0  0  0  0  0  0  0  0
   -2.3803   -0.5090   -0.8664 H   0  0  0  0  0  0  0  0  0  0  0  0
   -0.2620    2.1213    0.7382 H   0  0  0  0  0  0  0  0  0  0  0  0
   -1.9036    1.7655    0.0884 H   0  0  0  0  0  0  0  0  0  0  0  0
   -1.4663    1.2654    1.7402 H   0  0  0  0  0  0  0  0  0  0  0  0
   -1.4554    0.8498   -2.2358 H   0  0  0  0  0  0  0  0  0  0  0  0
   -0.3440    2.1443   -1.7058 H   0  0  0  0  0  0  0  0  0  0  0  0
    2.0884    0.1548    2.0044 H   0  0  0  0  0  0  0  0  0  0  0  0
  1  6  1  0  0  0  0
  2  7  1  0  0  0  0
  3  7  1  0  0  0  0
  4  8  1  0  0  0  0
  5  8  1  0  0  0  0
  6 10  1  0  0  0  0
  7  8  1  0  0  0  0
  7  9  1  0  0  0  0
  8 10  1  0  0  0  0
  1 11  1  0  0  0  0
  1 12  1  0  0  0  0
  1 13  1  0  0  0  0
  2 14  1  0  0  0  0
  2 15  1  0  0  0  0
  2 16  1  0  0  0  0
  3 17  1  0  0  0  0
  3 18  1  0  0  0  0
  3 19  1  0  0  0  0
  4 20  1  0  0  0  0
  4 21  1  0  0  0  0
  4 22  1  0  0  0  0
  5 23  1  0  0  0  0
  5 24  1  0  0  0  0
  5 25  1  0  0  0  0
  6 26  1  0  0  0  0
  6 27  1  0  0  0  0
  9 28  1  0  0  0  0
M  END
> <MM Szybki Single Point Energy>
40.999469908315

> <MM Szybki SD Energy>
40.670910234773

> <Original omega conformer number>
2

$$$$
AlkEthOH_c1178
  -OEChem-05251717563D

 28 27  0     0  0  0  0  0  0999 V2000
    0.7362    0.1996   -3.2249 C   0  0  0  0  0  0  0  0  0  0  0  0
    1.8308    0.2156    0.8535 C   0  0  0  0  0  0  0  0  0  0  0  0
    0.0952   -0.2664    2.5929 C   0  0  0  0  0  0  0  0  0  0  0  0
   -1.9330   -0.4042    0.1252 C   0  0  0  0  0  0  0  0  0  0  0  0
   -0.9413    1.7913    0.7708 C   0  0  0  0  0  0  0  0  0  0  0  0
    0.0136   -0.3731   -2.0204 C   0  0  0  0  0  0  0  0  0  0  0  0
    0.4271   -0.3361    1.0997 C   0  0  0  0  0  0  0  0  0  0  0  0
   -0.6337    0.3980    0.2219 C   0  0  0  0  0  0  0  0  0  0  0  0
    0.3931   -1.7123    0.6989 O   0  0  0  0  0  0  0  0  0  0  0  0
   -0.1018    0.6795   -1.0751 O   0  0  0  0  0  0  0  0  0  0  0  0
    0.1814    1.0670   -3.6201 H   0  0  0  0  0  0  0  0  0  0  0  0
    1.7478    0.5374   -2.9425 H   0  0  0  0  0  0  0  0  0  0  0  0
    0.8256   -0.5594   -4.0221 H   0  0  0  0  0  0  0  0  0  0  0  0
    2.1216    0.0752   -0.1981 H   0  0  0  0  0  0  0  0  0  0  0  0
    1.8989    1.2896    1.0935 H   0  0  0  0  0  0  0  0  0  0  0  0
    2.5532   -0.3207    1.4990 H   0  0  0  0  0  0  0  0  0  0  0  0
   -0.9284   -0.6254    2.7915 H   0  0  0  0  0  0  0  0  0  0  0  0
    0.7950   -0.9236    3.1431 H   0  0  0  0  0  0  0  0  0  0  0  0
    0.2079    0.7528    2.9982 H   0  0  0  0  0  0  0  0  0  0  0  0
   -1.7600   -1.4221   -0.2518 H   0  0  0  0  0  0  0  0  0  0  0  0
   -2.4130   -0.4866    1.1148 H   0  0  0  0  0  0  0  0  0  0  0  0
   -2.6268    0.1253   -0.5519 H   0  0  0  0  0  0  0  0  0  0  0  0
   -0.0205    2.3879    0.8832 H   0  0  0  0  0  0  0  0  0  0  0  0
   -1.5866    2.3060    0.0395 H   0  0  0  0  0  0  0  0  0  0  0  0
   -1.4673    1.7473    1.7382 H   0  0  0  0  0  0  0  0  0  0  0  0
    0.5638   -1.2299   -1.5961 H   0  0  0  0  0  0  0  0  0  0  0  0
   -0.9881   -0.7370   -2.3235 H   0  0  0  0  0  0  0  0  0  0  0  0
    1.0957   -2.1746    1.1916 H   0  0  0  0  0  0  0  0  0  0  0  0
  1  6  1  0  0  0  0
  2  7  1  0  0  0  0
  3  7  1  0  0  0  0
  4  8  1  0  0  0  0
  5  8  1  0  0  0  0
  6 10  1  0  0  0  0
  7  8  1  0  0  0  0
  7  9  1  0  0  0  0
  8 10  1  0  0  0  0
  1 11  1  0  0  0  0
  1 12  1  0  0  0  0
  1 13  1  0  0  0  0
  2 14  1  0  0  0  0
  2 15  1  0  0  0  0
  2 16  1  0  0  0  0
  3 17  1  0  0  0  0
  3 18  1  0  0  0  0
  3 19  1  0  0  0  0
  4 20  1  0  0  0  0
  4 21  1  0  0  0  0
  4 22  1  0  0  0  0
  5 23  1  0  0  0  0
  5 24  1  0  0  0  0
  5 25  1  0  0  0  0
  6 26  1  0  0  0  0
  6 27  1  0  0  0  0
  9 28  1  0  0  0  0
M  END
> <MM Szybki Single Point Energy>
39.848786796826

> <MM Szybki SD Energy>
39.407968855264

> <Original omega conformer number>
3

$$$$
AlkEthOH_c1178
  -OEChem-05251717563D

 28 27  0     0  0  0  0  0  0999 V2000
    0.2957    1.2607   -3.1610 C   0  0  0  0  0  0  0  0  0  0  0  0
    1.8270    0.1925    1.2722 C   0  0  0  0  0  0  0  0  0  0  0  0
    0.0764   -1.1994    2.3972 C   0  0  0  0  0  0  0  0  0  0  0  0
   -1.8192   -0.6435    0.1641 C   0  0  0  0  0  0  0  0  0  0  0  0
   -0.8092    1.5277    0.9259 C   0  0  0  0  0  0  0  0  0  0  0  0
   -0.6726    0.8726   -2.0596 C   0  0  0  0  0  0  0  0  0  0  0  0
    0.5613   -0.6454    1.0640 C   0  0  0  0  0  0  0  0  0  0  0  0
   -0.5300    0.1641    0.2941 C   0  0  0  0  0  0  0  0  0  0  0  0
    0.8833   -1.7855    0.2750 O   0  0  0  0  0  0  0  0  0  0  0  0
    0.0925    0.3411   -0.9940 O   0  0  0  0  0  0  0  0  0  0  0  0
    0.9986    2.0285   -2.7973 H   0  0  0  0  0  0  0  0  0  0  0  0
    0.8778    0.3804   -3.4818 H   0  0  0  0  0  0  0  0  0  0  0  0
   -0.2490    1.6599   -4.0346 H   0  0  0  0  0  0  0  0  0  0  0  0
    2.1461    0.6516    0.3218 H   0  0  0  0  0  0  0  0  0  0  0  0
    1.6839    0.9880    2.0240 H   0  0  0  0  0  0  0  0  0  0  0  0
    2.6259   -0.4824    1.6244 H   0  0  0  0  0  0  0  0  0  0  0  0
   -0.7276   -1.9366    2.2452 H   0  0  0  0  0  0  0  0  0  0  0  0
    0.9185   -1.7209    2.8844 H   0  0  0  0  0  0  0  0  0  0  0  0
   -0.2763   -0.4016    3.0728 H   0  0  0  0  0  0  0  0  0  0  0  0
   -1.5994   -1.6437   -0.2437 H   0  0  0  0  0  0  0  0  0  0  0  0
   -2.3056   -0.7573    1.1470 H   0  0  0  0  0  0  0  0  0  0  0  0
   -2.5384   -0.1302   -0.4968 H   0  0  0  0  0  0  0  0  0  0  0  0
    0.0705    2.1852    0.8358 H   0  0  0  0  0  0  0  0  0  0  0  0
   -1.6626    2.0224    0.4298 H   0  0  0  0  0  0  0  0  0  0  0  0
   -1.0687    1.4209    1.9931 H   0  0  0  0  0  0  0  0  0  0  0  0
   -1.3979    0.1250   -2.4367 H   0  0  0  0  0  0  0  0  0  0  0  0
   -1.2476    1.7595   -1.7297 H   0  0  0  0  0  0  0  0  0  0  0  0
    1.0125   -1.4332   -0.6281 H   0  0  0  0  0  0  0  0  0  0  0  0
  1  6  1  0  0  0  0
  2  7  1  0  0  0  0
  3  7  1  0  0  0  0
  4  8  1  0  0  0  0
  5  8  1  0  0  0  0
  6 10  1  0  0  0  0
  7  8  1  0  0  0  0
  7  9  1  0  0  0  0
  8 10  1  0  0  0  0
  1 11  1  0  0  0  0
  1 12  1  0  0  0  0
  1 13  1  0  0  0  0
  2 14  1  0  0  0  0
  2 15  1  0  0  0  0
  2 16  1  0  0  0  0
  3 17  1  0  0  0  0
  3 18  1  0  0  0  0
  3 19  1  0  0  0  0
  4 20  1  0  0  0  0
  4 21  1  0  0  0  0
  4 22  1  0  0  0  0
  5 23  1  0  0  0  0
  5 24  1  0  0  0  0
  5 25  1  0  0  0  0
  6 26  1  0  0  0  0
  6 27  1  0  0  0  0
  9 28  1  0  0  0  0
M  END
> <MM Szybki Single Point Energy>
37.525622655869

> <MM Szybki SD Energy>
37.036909420562

> <Original omega conformer number>
4

$$$$
AlkEthOH_c1178
  -OEChem-05251717563D

 28 27  0     0  0  0  0  0  0999 V2000
    0.4293    1.3831   -3.1214 C   0  0  0  0  0  0  0  0  0  0  0  0
    1.8805    0.0708    1.0470 C   0  0  0  0  0  0  0  0  0  0  0  0
    0.0684   -0.7727    2.5544 C   0  0  0  0  0  0  0  0  0  0  0  0
   -1.7133   -0.8058   -0.0876 C   0  0  0  0  0  0  0  0  0  0  0  0
   -1.0287    1.3982    0.9040 C   0  0  0  0  0  0  0  0  0  0  0  0
   -0.5588    0.8303   -2.1117 C   0  0  0  0  0  0  0  0  0  0  0  0
    0.5188   -0.6226    1.0981 C   0  0  0  0  0  0  0  0  0  0  0  0
   -0.5340    0.1174    0.2249 C   0  0  0  0  0  0  0  0  0  0  0  0
    0.6428   -1.9229    0.5196 O   0  0  0  0  0  0  0  0  0  0  0  0
    0.1796    0.4682   -0.9650 O   0  0  0  0  0  0  0  0  0  0  0  0
    0.9363    2.2712   -2.7094 H   0  0  0  0  0  0  0  0  0  0  0  0
    1.1937    0.6226   -3.3521 H   0  0  0  0  0  0  0  0  0  0  0  0
   -0.0847    1.6660   -4.0569 H   0  0  0  0  0  0  0  0  0  0  0  0
    2.2562    0.0653    0.0140 H   0  0  0  0  0  0  0  0  0  0  0  0
    1.8327    1.1126    1.4061 H   0  0  0  0  0  0  0  0  0  0  0  0
    2.5902   -0.4759    1.6981 H   0  0  0  0  0  0  0  0  0  0  0  0
   -0.9268   -1.2430    2.6236 H   0  0  0  0  0  0  0  0  0  0  0  0
    0.7864   -1.4317    3.0772 H   0  0  0  0  0  0  0  0  0  0  0  0
    0.0515    0.1927    3.0878 H   0  0  0  0  0  0  0  0  0  0  0  0
   -1.3772   -1.6463   -0.7123 H   0  0  0  0  0  0  0  0  0  0  0  0
   -2.1440   -1.2150    0.8408 H   0  0  0  0  0  0  0  0  0  0  0  0
   -2.5120   -0.2517   -0.6105 H   0  0  0  0  0  0  0  0  0  0  0  0
   -0.1839    2.0426    1.2001 H   0  0  0  0  0  0  0  0  0  0  0  0
   -1.6601    1.9689    0.2015 H   0  0  0  0  0  0  0  0  0  0  0  0
   -1.6423    1.1757    1.7930 H   0  0  0  0  0  0  0  0  0  0  0  0
   -1.0852   -0.0457   -2.5387 H   0  0  0  0  0  0  0  0  0  0  0  0
   -1.3264    1.5961   -1.8773 H   0  0  0  0  0  0  0  0  0  0  0  0
    1.4093   -2.3539    0.9376 H   0  0  0  0  0  0  0  0  0  0  0  0
  1  6  1  0  0  0  0
  2  7  1  0  0  0  0
  3  7  1  0  0  0  0
  4  8  1  0  0  0  0
  5  8  1  0  0  0  0
  6 10  1  0  0  0  0
  7  8  1  0  0  0  0
  7  9  1  0  0  0  0
  8 10  1  0  0  0  0
  1 11  1  0  0  0  0
  1 12  1  0  0  0  0
  1 13  1  0  0  0  0
  2 14  1  0  0  0  0
  2 15  1  0  0  0  0
  2 16  1  0  0  0  0
  3 17  1  0  0  0  0
  3 18  1  0  0  0  0
  3 19  1  0  0  0  0
  4 20  1  0  0  0  0
  4 21  1  0  0  0  0
  4 22  1  0  0  0  0
  5 23  1  0  0  0  0
  5 24  1  0  0  0  0
  5 25  1  0  0  0  0
  6 26  1  0  0  0  0
  6 27  1  0  0  0  0
  9 28  1  0  0  0  0
M  END
> <MM Szybki Single Point Energy>
41.382952329658

> <MM Szybki SD Energy>
40.699979397496

> <Original omega conformer number>
5

$$$$
GBI
  -OEChem-05251717563D

 23 24  0     0  0  0  0  0  0999 V2000
   -0.0239    0.8873   -3.5350 C   0  0  0  0  0  0  0  0  0  0  0  0
   -1.4174    1.0661   -3.3553 C   0  0  0  0  0  0  0  0  0  0  0  0
    0.8037    0.4918   -2.4861 C   0  0  0  0  0  0  0  0  0  0  0  0
   -2.0337    0.8562   -2.1215 C   0  0  0  0  0  0  0  0  0  0  0  0
    0.1994    0.2760   -1.2366 C   0  0  0  0  0  0  0  0  0  0  0  0
   -1.1943    0.4587   -1.0724 C   0  0  0  0  0  0  0  0  0  0  0  0
   -0.2398   -0.1651    0.8111 C   0  0  0  0  0  0  0  0  0  0  0  0
    1.0444   -0.8590    2.7742 C   0  3  0  0  0  0  0  0  0  0  0  0
    0.7652   -0.1170   -0.0317 N   0  0  0  0  0  0  0  0  0  0  0  0
   -1.4429    0.1643    0.2625 N   0  0  0  0  0  0  0  0  0  0  0  0
    2.1672   -0.8678    2.0801 N   0  0  0  0  0  0  0  0  0  0  0  0
    1.0114   -1.1768    4.0766 N   0  0  0  0  0  0  0  0  0  0  0  0
   -0.1202   -0.5212    2.1655 N   0  0  0  0  0  0  0  0  0  0  0  0
    0.4101    1.0654   -4.5251 H   0  0  0  0  0  0  0  0  0  0  0  0
   -2.0290    1.3781   -4.2094 H   0  0  0  0  0  0  0  0  0  0  0  0
    1.8811    0.3524   -2.6208 H   0  0  0  0  0  0  0  0  0  0  0  0
   -3.1118    0.9962   -1.9897 H   0  0  0  0  0  0  0  0  0  0  0  0
   -2.3512    0.1961    0.7197 H   0  0  0  0  0  0  0  0  0  0  0  0
    3.0531   -1.1168    2.5130 H   0  0  0  0  0  0  0  0  0  0  0  0
    2.0975   -0.6080    1.0699 H   0  0  0  0  0  0  0  0  0  0  0  0
    1.8613   -1.4363    4.5702 H   0  0  0  0  0  0  0  0  0  0  0  0
    0.1492   -1.1701    4.6132 H   0  0  0  0  0  0  0  0  0  0  0  0
   -0.9670   -0.5267    2.7283 H   0  0  0  0  0  0  0  0  0  0  0  0
  1  2  2  0  0  0  0
  1  3  1  0  0  0  0
  2  4  1  0  0  0  0
  3  5  2  0  0  0  0
  4  6  2  0  0  0  0
  5  6  1  0  0  0  0
  5  9  1  0  0  0  0
  6 10  1  0  0  0  0
  7  9  2  0  0  0  0
  7 10  1  0  0  0  0
  7 13  1  0  0  0  0
  8 11  1  0  0  0  0
  8 12  1  0  0  0  0
  8 13  1  0  0  0  0
  1 14  1  0  0  0  0
  2 15  1  0  0  0  0
  3 16  1  0  0  0  0
  4 17  1  0  0  0  0
 10 18  1  0  0  0  0
 11 19  1  0  0  0  0
 11 20  1  0  0  0  0
 12 21  1  0  0  0  0
 12 22  1  0  0  0  0
 13 23  1  0  0  0  0
M  CHG  1   8   1
M  END
> <MM Szybki Single Point Energy>
-266.597305479771

> <MM Szybki SD Energy>
-273.679403818895

> <Original omega conformer number>
1

$$$$
GBI
  -OEChem-05011716443D

 23 24  0     0  0  0  0  0  0999 V2000
    2.0682   -0.3844    0.6845 C   0  0  0  0  0  0  0  0  0  0  0  0
    0.6835   -0.3049    0.8547 C   0  0  0  0  0  0  0  0  0  0  0  0
    2.9044   -0.7412    1.7510 C   0  0  0  0  0  0  0  0  0  0  0  0
    0.0855   -0.5843    2.0885 C   0  0  0  0  0  0  0  0  0  0  0  0
    2.3205   -1.0265    2.9935 C   0  0  0  0  0  0  0  0  0  0  0  0
    0.9423   -0.9481    3.1283 C   0  0  0  0  0  0  0  0  0  0  0  0
    1.9166   -1.5973    5.0336 C   0  0  0  0  0  0  0  0  0  0  0  0
    3.1210   -2.2960    6.9886 C   0  3  0  0  0  0  0  0  0  0  0  0
    2.9063   -1.4011    4.1777 N   0  0  0  0  0  0  0  0  0  0  0  0
    0.7138   -1.3040    4.4315 N   0  0  0  0  0  0  0  0  0  0  0  0
    4.3179   -2.0432    6.4531 N   0  0  0  0  0  0  0  0  0  0  0  0
    3.0789   -2.8197    8.2191 N   0  0  0  0  0  0  0  0  0  0  0  0
    1.9679   -2.0398    6.3397 N   0  0  0  0  0  0  0  0  0  0  0  0
    2.5049   -0.1678   -0.2896 H   0  0  0  0  0  0  0  0  0  0  0  0
    0.0556   -0.0232    0.0094 H   0  0  0  0  0  0  0  0  0  0  0  0
    3.9799   -0.8043    1.6172 H   0  0  0  0  0  0  0  0  0  0  0  0
   -0.9911   -0.5266    2.2220 H   0  0  0  0  0  0  0  0  0  0  0  0
   -0.1877   -1.3647    4.8808 H   0  0  0  0  0  0  0  0  0  0  0  0
    5.1743   -2.2229    6.9546 H   0  0  0  0  0  0  0  0  0  0  0  0
    4.3594   -1.6603    5.5127 H   0  0  0  0  0  0  0  0  0  0  0  0
    3.9324   -3.0275    8.7177 H   0  0  0  0  0  0  0  0  0  0  0  0
    2.2002   -3.0572    8.6574 H   0  0  0  0  0  0  0  0  0  0  0  0
    1.1230   -2.2039    6.8739 H   0  0  0  0  0  0  0  0  0  0  0  0
  1  2  2  0  0  0  0
  1  3  1  0  0  0  0
  2  4  1  0  0  0  0
  3  5  2  0  0  0  0
  4  6  2  0  0  0  0
  5  6  1  0  0  0  0
  5  9  1  0  0  0  0
  6 10  1  0  0  0  0
  7  9  2  0  0  0  0
  7 10  1  0  0  0  0
  7 13  1  0  0  0  0
  8 11  1  0  0  0  0
  8 12  1  0  0  0  0
  8 13  1  0  0  0  0
  1 14  1  0  0  0  0
  2 15  1  0  0  0  0
  3 16  1  0  0  0  0
  4 17  1  0  0  0  0
 10 18  1  0  0  0  0
 11 19  1  0  0  0  0
 11 20  1  0  0  0  0
 12 21  1  0  0  0  0
 12 22  1  0  0  0  0
 13 23  1  0  0  0  0
M  CHG  1   8   1
M  END
> <MM Szybki Single Point Energy>
-262.023227021591

> <MM Szybki SD Energy>
-273.361488335978

> <Original omega conformer number>
2

$$$$
