0
  -OEChem-10221821203D

  8  7  0     0  0  0  0  0  0999 V2000
   -1.4385   -0.2021    0.0004 C   0  0  0  0  0  0  0  0  0  0  0  0
    0.7724   -0.9867    0.0039 O   0  0  0  0  0  0  0  0  0  0  0  0
    0.0281    0.1071   -0.0014 C   0  0  0  0  0  0  0  0  0  0  0  0
    0.5054    1.2039   -0.0055 O   0  0  0  0  0  0  0  0  0  0  0  0
   -2.0078    0.7149   -0.0158 H   0  0  0  0  0  0  0  0  0  0  0  0
   -1.6841   -0.7754    0.8867 H   0  0  0  0  0  0  0  0  0  0  0  0
   -1.6818   -0.8060   -0.8658 H   0  0  0  0  0  0  0  0  0  0  0  0
    1.6972   -0.7451    0.0035 H   0  0  0  0  0  0  0  0  0  0  0  0
  1  3  1  0  0  0  0
  1  5  1  0  0  0  0
  1  6  1  0  0  0  0
  1  7  1  0  0  0  0
  2  3  1  0  0  0  0
  2  8  1  0  0  0  0
  3  4  2  0  0  0  0
M  END
> <QM Turbomole Opt. Runtime (sec) HF/6-31G*>
52.0

> <QM Turbomole Final Opt. Energy (Har) HF/6-31G*>
-227.8233603490

> <QM Turbomole Final Opt. Energy with OC correction (Har) HF/6-31G*>
-227.8233914412

> <Original omega conformer number>
1

> <QM Turbomole Opt. Steps HF/6-31G*>
8

> <QM Turbomole Initial Opt. Energy (Har) HF/6-31G*>
-227.8160966973

$$$$
15
  -OEChem-10221821203D

  8  7  0     0  0  0  0  0  0999 V2000
   -1.4386   -0.2032    0.0088 C   0  0  0  0  0  0  0  0  0  0  0  0
    0.7746   -0.9839   -0.0378 O   0  0  0  0  0  0  0  0  0  0  0  0
    0.0273    0.1083    0.0210 C   0  0  0  0  0  0  0  0  0  0  0  0
    0.5014    1.2058    0.0434 O   0  0  0  0  0  0  0  0  0  0  0  0
   -2.0097    0.7112   -0.0474 H   0  0  0  0  0  0  0  0  0  0  0  0
   -1.6948   -0.7435    0.9131 H   0  0  0  0  0  0  0  0  0  0  0  0
   -1.6692   -0.8402   -0.8367 H   0  0  0  0  0  0  0  0  0  0  0  0
    1.6810   -0.7679    0.1751 H   0  0  0  0  0  0  0  0  0  0  0  0
  1  3  1  0  0  0  0
  1  5  1  0  0  0  0
  1  6  1  0  0  0  0
  1  7  1  0  0  0  0
  2  3  1  0  0  0  0
  2  8  1  0  0  0  0
  3  4  2  0  0  0  0
M  END
> <QM Turbomole Opt. Runtime (sec) HF/6-31G*>
93.0

> <QM Turbomole Final Opt. Energy (Har) HF/6-31G*>
-227.8222203039

> <QM Turbomole Final Opt. Energy with OC correction (Har) HF/6-31G*>
-227.8222606874

> <Original omega conformer number>
1

> <QM Turbomole Opt. Steps HF/6-31G*>
14

> <QM Turbomole Initial Opt. Energy (Har) HF/6-31G*>
-227.8149781380

$$$$
